Circuit: * C:\Users\38095\Desktop\lab3analog\1.asc

Instance "m:u1:2": Length shorter than recommended for a level 3 MOSFET.
Instance "m:u1:1": Length shorter than recommended for a level 3 MOSFET.
.OP point found by inspection.

Date: Fri May 17 11:33:13 2019
Total elapsed time: 0.035 seconds.

tnom = 27
temp = 27
method = trap
totiter = 85
traniter = 0
tranpoints = 0
accept = 0
rejected = 0
matrix size = 8
fillins = 0
solver = Normal
Matrix Compiler1: 540 bytes object code size
Matrix Compiler2: 716 bytes object code size

