Circuit: * C:\Users\38095\Desktop\lab3analog\2.asc

Instance "m:u1:2": Length shorter than recommended for a level 3 MOSFET.
Instance "m:u1:1": Length shorter than recommended for a level 3 MOSFET.
.step v2=0
.step v2=0.05
.step v2=0.1
.step v2=0.15
.step v2=0.2
.step v2=0.25
.step v2=0.3
.step v2=0.35
.step v2=0.4
.step v2=0.45
.step v2=0.5
.step v2=0.55
.step v2=0.6
.step v2=0.65
.step v2=0.7
.step v2=0.75
.step v2=0.8
.step v2=0.85
.step v2=0.9
.step v2=0.95
.step v2=1
.step v2=1.05
.step v2=1.1
.step v2=1.15
.step v2=1.2
.step v2=1.25
.step v2=1.3
.step v2=1.35
.step v2=1.4
.step v2=1.45
.step v2=1.5
.step v2=1.55
.step v2=1.6
.step v2=1.65
.step v2=1.7
.step v2=1.75
.step v2=1.8
.step v2=1.85
.step v2=1.9
.step v2=1.95
.step v2=2
.step v2=2.05
.step v2=2.1
.step v2=2.15
.step v2=2.2
.step v2=2.25
.step v2=2.3
.step v2=2.35
.step v2=2.4
.step v2=2.45
.step v2=2.5
.step v2=2.55
.step v2=2.6
.step v2=2.65
.step v2=2.7
.step v2=2.75
.step v2=2.8
.step v2=2.85
.step v2=2.9
.step v2=2.95
.step v2=3
.step v2=3.05
.step v2=3.1
.step v2=3.15
.step v2=3.2
.step v2=3.25
.step v2=3.3
.step v2=3.35
.step v2=3.4
.step v2=3.45
.step v2=3.5
.step v2=3.55
.step v2=3.6
.step v2=3.65
.step v2=3.7
.step v2=3.75
.step v2=3.8
.step v2=3.85
.step v2=3.9
.step v2=3.95
.step v2=4
.step v2=4.05
.step v2=4.1
.step v2=4.15
.step v2=4.2
.step v2=4.25
.step v2=4.3
.step v2=4.35
.step v2=4.4
.step v2=4.45
.step v2=4.5
.step v2=4.55
.step v2=4.6
.step v2=4.65
.step v2=4.7
.step v2=4.75
.step v2=4.8
.step v2=4.85
.step v2=4.9
.step v2=4.95
.step v2=5

Date: Thu May 16 02:30:57 2019
Total elapsed time: 0.144 seconds.

tnom = 27
temp = 27
method = trap
totiter = 1615
traniter = 0
tranpoints = 0
accept = 0
rejected = 0
matrix size = 10
fillins = 0
solver = Normal
Matrix Compiler1: 568 bytes object code size  0.2/0.5/[0.1]
Matrix Compiler2: 814 bytes object code size  0.2/0.2/[0.1]


