Circuit: * C:\Users\38095\Desktop\lab3analog\3.asc

WARNING: Node NC_01 is floating.

WARNING: Less than two connections to node NC_01.  This node is used by C1.
Instance "m:u1:2": Length shorter than recommended for a level 3 MOSFET.
Instance "m:u1:1": Length shorter than recommended for a level 3 MOSFET.
Direct Newton iteration for .op point succeeded.

Date: Fri May 17 11:30:33 2019
Total elapsed time: 0.048 seconds.

tnom = 27
temp = 27
method = modified trap
totiter = 2090
traniter = 2083
tranpoints = 1042
accept = 1042
rejected = 0
matrix size = 13
fillins = 5
solver = Normal
Matrix Compiler1: 1.10 KB object code size  0.2/0.1/[0.1]
Matrix Compiler2: 1.11 KB object code size  0.1/0.1/[0.1]


